42

C         -3.45244        0.71220        0.11230
C          1.08533        3.35500       -0.00469
C          1.93559        3.12825       -1.10862
C          2.96769        2.19593       -1.03635
C          3.20169        1.45615        0.14426
C          2.62567        1.99884        1.31142
C          1.58675        2.91973        1.23816
C         -3.14690        0.05114        1.31772
C         -2.85267       -1.30790        1.33429
C         -2.85071       -2.06469        0.14635
C         -1.75056       -3.06035       -0.02894
C         -1.02527       -3.58741        1.06151
C          0.35993       -3.72382        0.99975
C          1.07879       -3.34145       -0.15495
C          2.37602       -2.60367       -0.07137
C          2.79442       -2.07137        1.16614
C          3.36922       -0.80752        1.24994
C          3.52492       -0.00322        0.10085
C          3.48433       -0.70372       -1.12383
C          2.93610       -1.97997       -1.20700
C          0.30600       -3.21471       -1.32712
C         -1.07539       -3.07266       -1.26518
C         -3.53049       -1.48427       -0.94707
C         -3.82485       -0.12194       -0.96416
H          1.69931        3.55972       -2.07772
H          3.48447        1.93748       -1.95617
H          2.83672        1.56142        2.28144
H          1.03666        3.13286        2.14938
H         -2.91589        0.62997        2.20650
H         -2.40899       -1.71703        2.23633
H         -1.51811       -3.74847        2.01695
H          0.88906       -3.98455        1.91221
H          2.50584       -2.55568        2.09391
H          3.52275       -0.38858        2.23950
H          3.71761       -0.19382       -2.05356
H          2.79300       -2.40779       -2.19486
H          0.78625       -3.01277       -2.27863
H         -1.59147       -2.75660       -2.16630
H         -3.69724       -2.06154       -1.85305
H         -4.20886        0.31483       -1.88282
H         -3.40708        1.73922        0.02177
H          0.16267        3.80714       -0.10104
